[General]
network = slottedNetwork
sim-time-limit = 3600s
**.vector-recording = true
