[General]
network = slottedNetwork
sim-time-limit = 3600s
**.vector-recording = true
**.numTransmitters = 1
**.numChannels = 1
**.bufferSize = 5
**.sendProbability = 1
**.expMean = 5s
**.timeSlotSize = 5s
**.thresh = 20s