[General]
network=TwoTxRx
sim-time-limit = 3600s
**.vector-recording = true
